Version 4
SHEET 1 880 680
WIRE 160 144 144 144
LINE Normal 160 144 144 144 1
