Version 4
SHEET 1 2628 1204
WIRE 192 112 192 48
WIRE 320 112 320 48
WIRE 480 112 480 48
WIRE 672 112 672 48
WIRE 624 128 576 128
WIRE 144 144 112 144
WIRE 272 144 240 144
WIRE 1824 144 1824 80
WIRE 2016 144 2016 80
WIRE 2176 144 2176 80
WIRE 2304 144 2304 80
WIRE 432 160 400 160
WIRE 1920 160 1872 160
WIRE 2256 176 2224 176
WIRE 2384 176 2352 176
WIRE 2096 192 2064 192
WIRE 192 256 192 176
WIRE 320 256 320 176
WIRE 480 256 480 176
WIRE 672 256 672 176
WIRE 1824 288 1824 208
WIRE 2016 288 2016 208
WIRE 2176 288 2176 208
WIRE 2304 288 2304 208
WIRE 192 336 192 272
WIRE 480 336 480 272
WIRE 992 336 992 304
WIRE 1600 336 1600 304
WIRE -208 384 -272 384
WIRE -64 384 -144 384
WIRE 128 384 48 384
WIRE 416 384 320 384
WIRE 960 384 880 384
WIRE 1088 384 1024 384
WIRE 1568 384 1504 384
WIRE 1712 384 1632 384
WIRE 2496 384 2416 384
WIRE 2624 384 2560 384
WIRE 992 464 992 432
WIRE 1600 464 1600 432
WIRE -192 480 -192 432
WIRE 2544 480 2544 432
WIRE 960 512 880 512
WIRE 1088 512 1024 512
WIRE 1568 512 1504 512
WIRE 1712 512 1632 512
WIRE 192 528 192 432
WIRE 480 528 480 432
WIRE 432 544 320 544
WIRE -208 576 -272 576
WIRE -64 576 -144 576
WIRE 2496 576 2416 576
WIRE 2624 576 2560 576
WIRE 144 608 48 608
WIRE 976 624 976 592
WIRE 1616 624 1616 592
WIRE -160 656 -160 624
WIRE 2512 656 2512 624
WIRE 960 672 880 672
WIRE 1088 672 1024 672
WIRE 1568 672 1504 672
WIRE 1712 672 1632 672
WIRE 480 704 480 624
WIRE -208 736 -272 736
WIRE -64 736 -144 736
WIRE 2496 736 2416 736
WIRE 2624 736 2560 736
WIRE 192 752 192 624
WIRE -176 816 -176 784
WIRE 1008 816 1008 768
WIRE 1584 816 1584 768
WIRE 2528 816 2528 784
WIRE -208 864 -272 864
WIRE -64 864 -144 864
WIRE 960 864 880 864
WIRE 1088 864 1024 864
WIRE 1568 864 1504 864
WIRE 1712 864 1632 864
WIRE 2496 864 2416 864
WIRE 2624 864 2560 864
WIRE -176 944 -176 912
WIRE 2528 944 2528 912
WIRE 1824 976 1824 896
WIRE 1952 976 1952 896
WIRE 2112 976 2112 896
WIRE 2304 976 2304 896
WIRE 2064 992 2032 992
WIRE 1776 1008 1744 1008
WIRE 1904 1008 1872 1008
WIRE 2256 1024 2208 1024
WIRE 208 1072 208 992
WIRE 400 1072 400 992
WIRE 560 1072 560 992
WIRE 688 1072 688 992
WIRE 480 1088 448 1088
WIRE 640 1104 608 1104
WIRE 768 1104 736 1104
WIRE 1824 1104 1824 1040
WIRE 1952 1104 1952 1040
WIRE 2112 1104 2112 1040
WIRE 2304 1104 2304 1040
WIRE 304 1120 256 1120
WIRE 208 1200 208 1136
WIRE 400 1200 400 1136
WIRE 560 1200 560 1136
WIRE 688 1200 688 1136
SYMBOL npn 128 336 R0
SYMATTR InstName Q3
SYMBOL circuiTikz\\nmos_t 480 144 R0
SYMATTR InstName M1
SYMBOL circuiTikz\\npn_t 192 144 R0
SYMATTR InstName Q1
SYMBOL circuiTikz\\pnp_t 320 144 R0
SYMATTR InstName Q2
SYMBOL circuiTikz\\pmos_t 672 144 R0
SYMATTR InstName M2
SYMBOL pnp 416 432 M180
SYMATTR InstName Q5
SYMBOL nmos 144 528 R0
SYMATTR InstName M4
SYMBOL pmos 432 624 M180
SYMATTR InstName M3
SYMBOL circuiTikz\\nmos_t 992 672 R90
SYMATTR InstName M5
SYMBOL circuiTikz\\npn_t 992 384 R90
SYMATTR InstName Q4
SYMBOL circuiTikz\\pnp_t 992 512 R90
SYMATTR InstName Q6
SYMBOL circuiTikz\\pmos_t 992 864 R90
SYMATTR InstName M6
SYMBOL circuiTikz\\nmos_t -176 576 R270
SYMATTR InstName M7
SYMBOL circuiTikz\\npn_t -176 864 R270
SYMATTR InstName Q7
SYMBOL circuiTikz\\pnp_t -176 736 R270
SYMATTR InstName Q8
SYMBOL circuiTikz\\pmos_t -176 384 R270
SYMATTR InstName M8
SYMBOL circuiTikz\\nmos_t 400 1104 R180
SYMATTR InstName M9
SYMBOL circuiTikz\\npn_t 688 1104 R180
SYMATTR InstName Q9
SYMBOL circuiTikz\\pnp_t 560 1104 R180
SYMATTR InstName Q10
SYMBOL circuiTikz\\pmos_t 208 1104 R180
SYMATTR InstName M10
SYMBOL circuiTikz\\nmos_t 2016 176 M0
SYMATTR InstName M11
SYMBOL circuiTikz\\npn_t 2304 176 M0
SYMATTR InstName Q11
SYMBOL circuiTikz\\pnp_t 2176 176 M0
SYMATTR InstName Q12
SYMBOL circuiTikz\\pmos_t 1824 176 M0
SYMATTR InstName M12
SYMBOL circuiTikz\\nmos_t 2528 576 M270
SYMATTR InstName M13
SYMBOL circuiTikz\\npn_t 2528 864 M270
SYMATTR InstName Q13
SYMBOL circuiTikz\\pnp_t 2528 736 M270
SYMATTR InstName Q14
SYMBOL circuiTikz\\pmos_t 2528 384 M270
SYMATTR InstName M14
SYMBOL circuiTikz\\nmos_t 2112 1008 M180
SYMATTR InstName M15
SYMBOL circuiTikz\\npn_t 1824 1008 M180
SYMATTR InstName Q15
SYMBOL circuiTikz\\pnp_t 1952 1008 M180
SYMATTR InstName Q16
SYMBOL circuiTikz\\pmos_t 2304 1008 M180
SYMATTR InstName M16
SYMBOL circuiTikz\\nmos_t 1600 672 M90
SYMATTR InstName M17
SYMBOL circuiTikz\\npn_t 1600 384 M90
SYMATTR InstName Q17
SYMBOL circuiTikz\\pnp_t 1600 512 M90
SYMATTR InstName Q18
SYMBOL circuiTikz\\pmos_t 1600 864 M90
SYMATTR InstName M18
